*SPEF "IEEE 1481-1998"
*DESIGN "vsdserializer_v1"
*DATE "Fri Aug 27 08:01:00 2021"
*VENDOR "AUC CSCE Department"
*PROGRAM "SPEF Extractor"
*VERSION "1.0"
*DESIGN_FLOW "PIN_CAP NONE"
*DIVIDER /
*DELIMITER :
*BUS_DELIMITER []
*T_UNIT 1.00000 NS
*C_UNIT 1.00000 PF
*R_UNIT 1.00000 OHM
*L_UNIT 1.00000 HENRY


*NAME_MAP
*0 INPUT[0]
*1 INPUT[1]
*2 INPUT[2]
*3 INPUT[3]
*4 INPUT[4]
*5 INPUT[5]
*6 INPUT[6]
*7 INPUT[7]
*8 INPUT[8]
*9 INPUT[9]
*10 OUTPUT
*11 _00_
*12 _01_
*13 _02_
*14 _03_
*15 _04_
*16 _05_
*17 _06_
*18 _07_
*19 _08_
*20 _09_
*21 _10_
*22 clk
*23 clknet_0_clk
*24 clknet_1_0__leaf_clk
*25 clknet_1_1__leaf_clk
*26 load
*27 net1
*28 net10
*29 net11
*30 net12
*31 net2
*32 net3
*33 net4
*34 net5
*35 net6
*36 net7
*37 net8
*38 net9
*39 tmp\[0\]
*40 tmp\[1\]
*41 tmp\[2\]
*42 tmp\[3\]
*43 tmp\[4\]
*44 tmp\[5\]
*45 tmp\[6\]
*46 tmp\[7\]
*47 tmp\[8\]
*48 tmp\[9\]

*D_NET *0 0.0007659193138
*CONN
*P INPUT[0] I
*I input1:A I
*CAP
0 *0:1 0.00020919182110000001
1 *0:3 0.0005567274927
2 input1:A 0
*RES
0 *0:1 *0:2 2.276785714285714
1 *0:3 *0:4 0.9729000000000001
2 input1:A input1:A 0
3 input1:A *0:2 0
4 *0:1 *0:3 0
*END

*D_NET *1 0.00070973609922
*CONN
*P INPUT[1] I
*I input2:A I
*CAP
3 *1:1 0.00065939557026
4 *1:3 5.034052896000001e-05
5 input2:A 0
*RES
5 *1:1 *1:2 7.437499999999999
6 *1:3 input2:A 0.4107142857142857
7 *1:3 *1:2 0
8 input2:A input2:A 0
*END

*D_NET *2 0.0012364192037800001
*CONN
*P INPUT[2] I
*I input3:A I
*CAP
6 input3:A 0.0002062676048
7 *2:2 0.0010301515989800001
8 *2:1 0
*RES
9 input3:A *2:1 2.0535714285714284
10 *2:2 *2:3 11.687499999999998
11 input3:A input3:A 0
12 *2:1 *2:2 0
*END

*D_NET *3 0.0009118799879599998
*CONN
*P INPUT[3] I
*I input4:A I
*CAP
9 *3:1 0.0005173101524999999
10 *3:3 0.00039456983545999995
11 input4:A 0
*RES
13 *3:1 *3:2 0.9008333333333334
14 *3:3 *3:4 4.4017857142857135
15 *3:3 *3:2 0
16 input4:A input4:A 0
17 input4:A *3:4 0
*END

*D_NET *4 0.0014114079405
*CONN
*P INPUT[4] I
*I input5:A I
*CAP
12 *4:1 0.00065939557026
13 *4:3 0.00075201237024
14 input5:A 0
*RES
18 *4:1 *4:2 7.437499999999999
19 *4:3 input5:A 7.803571428571428
20 *4:3 *4:2 0
21 input5:A input5:A 0
*END

*D_NET *5 0.00102604279846
*CONN
*P INPUT[5] I
*I input6:A I
*CAP
15 *5:1 0.0008977387315800001
16 input6:A 0.00012830406688
17 *5:3 0
*RES
22 *5:1 *5:2 10.169642857142856
23 input6:A *5:3 1.232142857142857
24 *5:3 *5:2 0
25 input6:A input6:A 0
*END

*D_NET *6 0.0006205716796799999
*CONN
*P INPUT[6] I
*I input7:A I
*CAP
18 *6:1 0.0005173101524999999
19 *6:3 0.00010326152718000001
20 input7:A 0
*RES
26 *6:1 *6:2 0.9008333333333334
27 *6:3 *6:4 1.0624999999999998
28 *6:3 *6:2 0
29 input7:A input7:A 0
30 input7:A *6:4 0
*END

*D_NET *7 0.0012642989093
*CONN
*P INPUT[7] I
*I input8:A I
*CAP
21 input8:A 9.779659552000001e-05
22 *7:2 0.00040117644959999997
23 *7:3 0.00076532586418
*RES
31 input8:A *7:1 0.9107142857142857
32 *7:2 *7:1 4.107142857142857
33 *7:3 *7:4 8.651785714285714
34 input8:A input8:A 0
35 *7:2 *7:3 0
*END

*D_NET *8 0.00230068400028
*CONN
*P INPUT[8] I
*I input9:A I
*CAP
24 *8:1 0.0007918084376600001
25 *8:3 0.0004791399875199999
26 *8:4 0.0010297355751
27 *8:2 0
28 input9:A 0
*RES
36 *8:1 *8:2 8.95535714285714
37 *8:3 input9:A 4.928571428571428
38 *8:4 *8:5 1.8377
39 *8:3 *8:1 0
40 *8:2 *8:4 0
41 input9:A input9:A 0
*END

*D_NET *9 0.00070973609922
*CONN
*P INPUT[9] I
*I input10:A I
*CAP
29 *9:1 0.00065939557026
30 *9:3 5.034052896000001e-05
31 input10:A 0
*RES
42 *9:1 *9:2 7.437499999999999
43 *9:3 input10:A 0.4107142857142857
44 *9:3 *9:2 0
45 input10:A input10:A 0
*END

*D_NET *10 0.0016777178578200002
*CONN
*P OUTPUT O
*I output12:X O
*CAP
32 *10:1 0.00067404883232
33 *10:2 0.0010036690255000001
34 output12:X 0
*RES
46 *10:1 output12:X 6.982142857142857
47 *10:2 *10:3 11.383928571428571
48 output12:X output12:X 0
49 *10:1 *10:2 0
*END

*D_NET *11 0.00049946267152
*CONN
*I _28_:D I
*I _13_:X O
*CAP
35 *11:1 0.00032836340175999997
36 _28_:D 0.00017109926975999998
37 _13_:X 0
38 *11:3 0
*RES
50 *11:1 *11:2 3.642857142857143
51 _28_:D *11:3 1.6830357142857142
52 _13_:X _13_:X 0
53 _13_:X *11:1 0
54 *11:3 *11:2 0
55 _28_:D _28_:D 0
*END

*D_NET *12 0.0017705414
*CONN
*I _29_:D I
*I _14_:X O
*CAP
39 _29_:D 0.00173037002816
40 _14_:X 4.017137184e-05
*RES
56 _29_:D _14_:X 18.111607142857142
57 _14_:X _14_:X 0.30357142857142855
58 _29_:D _29_:D 0
59 _14_:X _14_:X 0
*END

*D_NET *13 0.00017065677680000002
*CONN
*I _30_:D I
*I _15_:X O
*CAP
41 *13:1 0.00011650281392
42 *13:3 5.415396288e-05
43 _15_:X 0
44 _30_:D 0
*RES
60 *13:1 *13:2 1.2142857142857142
61 *13:3 _30_:D 0.4508928571428571
62 _15_:X _15_:X 0
63 _15_:X *13:1 0
64 *13:3 *13:2 0
65 _30_:D _30_:D 0
*END

*D_NET *14 0.00035024912224000004
*CONN
*I _22_:D I
*I _16_:X O
*CAP
45 _16_:X 0.00035024912224000004
46 _22_:D 0
*RES
66 _16_:X _22_:D 3.1473214285714284
67 _16_:X _16_:X 0.30357142857142855
68 _22_:D _22_:D 0
69 _16_:X _16_:X 0
*END

*D_NET *15 0.0005104776844800001
*CONN
*I _23_:D I
*I _17_:X O
*CAP
47 *15:1 0.00022243310784000002
48 _23_:D 0.00028804457664
49 _17_:X 0
50 *15:3 0
*RES
70 *15:1 *15:2 2.4285714285714284
71 _23_:D *15:3 2.915178571428571
72 _17_:X _17_:X 0
73 _17_:X *15:1 0
74 *15:3 *15:2 0
75 _23_:D _23_:D 0
*END

*D_NET *16 0.0010785962228799999
*CONN
*I _24_:D I
*I _18_:X O
*CAP
51 *16:1 0.00040117644959999997
52 *16:2 0.00011650281392
53 _24_:D 0.00056091695936
54 _18_:X 0
55 *16:4 0
*RES
76 *16:1 _18_:X 4.107142857142857
77 *16:2 *16:3 1.2142857142857142
78 _24_:D *16:4 5.790178571428571
79 _18_:X _18_:X 0
80 *16:1 *16:2 0
81 *16:4 *16:3 0
82 _24_:D _24_:D 0
*END

*D_NET *17 0.0007570154070399999
*CONN
*I _25_:D I
*I _19_:X O
*CAP
56 _25_:D 0.0007168440351999999
57 _19_:X 4.017137184e-05
*RES
83 _25_:D _19_:X 7.433035714285713
84 _19_:X _19_:X 0.30357142857142855
85 _25_:D _25_:D 0
86 _19_:X _19_:X 0
*END

*D_NET *18 0.00074006681184
*CONN
*I _26_:D I
*I _20_:X O
*CAP
58 _20_:X 4.017137184e-05
59 _26_:D 0.00069989544
*RES
87 _20_:X _20_:X 0.30357142857142855
88 _26_:D _20_:X 7.254464285714285
89 _26_:D _26_:D 0
90 _20_:X _20_:X 0
*END

*D_NET *19 0.00032827949912
*CONN
*I _27_:D I
*I _21_:X O
*CAP
60 *19:1 0.00016946796088000002
61 _27_:D 0.00015881153824
62 _21_:X 0
63 *19:3 0
*RES
91 *19:1 *19:2 1.8214285714285714
92 _27_:D *19:3 1.5535714285714284
93 _21_:X _21_:X 0
94 _21_:X *19:1 0
95 *19:3 *19:2 0
96 _27_:D _27_:D 0
*END

*D_NET *20 0.0007086986413600001
*CONN
*I _31_:D I
*I _11_:X O
*CAP
64 _31_:D 1.5172193919999998e-05
65 *20:1 0.00048725884264
66 _11_:X 0.0002062676048
67 *20:3 0
*RES
97 _31_:D _31_:D 0.040178571428571425
98 *20:1 *20:2 5.4642857142857135
99 _11_:X *20:3 2.0535714285714284
100 _31_:D _31_:D 0
101 _31_:D *20:1 0
102 *20:3 *20:2 0
103 _11_:X _11_:X 0
*END

*D_NET *21 0.00081462893528
*CONN
*I _32_:D I
*I _12_:X O
*CAP
68 _12_:X 5.034052896000001e-05
69 *21:2 0.00059318913656
70 _32_:D 0.00017109926975999998
71 *21:1 0
72 *21:4 0
*RES
104 _12_:X *21:1 0.4107142857142857
105 *21:2 *21:3 6.678571428571428
106 _32_:D *21:4 1.6830357142857142
107 _12_:X _12_:X 0
108 *21:1 *21:2 0
109 *21:4 *21:3 0
110 _32_:D _32_:D 0
*END

*D_NET *22 0.00221639340482
*CONN
*P clk I
*I clkbuf_0_clk:A I
*CAP
73 *22:1 4.017137184e-05
74 *22:2 0.00044015821855999997
75 *22:3 0.0014803553481400002
76 *22:5 8.223124824000001e-05
77 *22:6 6.353766696000002e-05
78 *22:7 0.00010993955108000003
79 clkbuf_0_clk:A 0
*RES
111 *22:1 clkbuf_0_clk:A 0.30357142857142855
112 *22:2 *22:1 4.517857142857142
113 *22:3 *22:4 16.848214285714285
114 *22:5 *22:4 0.8214285714285714
115 *22:6 *22:5 0.6071428571428571
116 *22:7 *22:6 0.4107142857142857
117 *22:7 *22:8 0.6071428571428571
118 clkbuf_0_clk:A clkbuf_0_clk:A 0
119 *22:2 *22:3 0
*END

*D_NET *23 0.00190888932888
*CONN
*I clkbuf_1_1__f_clk:A I
*I clkbuf_1_0__f_clk:A I
*I clkbuf_0_clk:X O
*CAP
80 *23:1 0.0005960852944
81 *23:3 4.017137184e-05
82 clkbuf_1_0__f_clk:A 0.00032321291168
83 *23:4 0.00048647994342000006
84 *23:6 0.00011650281392
85 *23:8 5.034052896000001e-05
86 *23:9 0.00029609646466000007
87 *23:2 0
88 clkbuf_1_1__f_clk:A 0
89 clkbuf_0_clk:X 0
*RES
120 *23:1 *23:2 6.160714285714286
121 *23:3 *23:1 0.30357142857142855
122 clkbuf_1_0__f_clk:A *23:3 3.2857142857142856
123 *23:4 *23:5 5.455357142857142
124 *23:6 *23:7 1.2142857142857142
125 *23:8 clkbuf_0_clk:X 0.4107142857142857
126 *23:9 *23:5 0.4107142857142857
127 *23:9 *23:6 2.7410714285714284
128 *23:2 *23:4 0
129 clkbuf_1_0__f_clk:A clkbuf_1_0__f_clk:A 0
130 clkbuf_1_1__f_clk:A clkbuf_1_1__f_clk:A 0
131 clkbuf_1_1__f_clk:A *23:7 0
132 *23:8 *23:6 0
133 clkbuf_0_clk:X clkbuf_0_clk:X 0
*END

*D_NET *24 0.0029958775311199996
*CONN
*I _22_:CLK I
*I _23_:CLK I
*I _27_:CLK I
*I _29_:CLK I
*I _30_:CLK I
*I _31_:CLK I
*I clkbuf_1_0__f_clk:X O
*CAP
90 *24:1 0.00016946796088000002
91 clkbuf_1_0__f_clk:X 0.00040117644959999997
92 *24:4 0.00040117644959999997
93 *24:3 6.898398368e-05
94 *24:5 5.034052896000001e-05
95 *24:6 0.00043429369568000003
96 _30_:CLK 5.034052896000001e-05
97 _31_:CLK 0.0002062676048
98 *24:10 0.00019595053436
99 _29_:CLK 0.00055710352544
100 *24:13 0.00046077626916000004
101 _22_:CLK 0
102 _23_:CLK 0
103 *24:15 0
104 *24:8 0
105 *24:9 0
106 _27_:CLK 0
107 *24:16 0
108 *24:12 0
*RES
134 *24:1 *24:2 1.8214285714285714
135 clkbuf_1_0__f_clk:X *24:3 4.107142857142857
136 *24:4 _23_:CLK 4.107142857142857
137 *24:3 *24:4 0.6071428571428571
138 *24:5 _30_:CLK 0.4107142857142857
139 *24:6 *24:7 4.857142857142857
140 _30_:CLK *24:8 0.4107142857142857
141 _31_:CLK *24:9 2.0535714285714284
142 *24:10 *24:11 2.1249999999999996
143 _29_:CLK *24:12 5.75
144 *24:13 *24:14 5.160714285714286
145 _22_:CLK _22_:CLK 0
146 _22_:CLK *24:1 0
147 *24:3 *24:2 0
148 clkbuf_1_0__f_clk:X clkbuf_1_0__f_clk:X 0
149 _23_:CLK _23_:CLK 0
150 _30_:CLK _30_:CLK 0
151 *24:5 *24:7 0
152 *24:15 *24:6 0
153 *24:8 *24:13 0
154 _31_:CLK _31_:CLK 0
155 *24:9 *24:10 0
156 _27_:CLK _27_:CLK 0
157 _27_:CLK *24:11 0
158 *24:16 *24:14 0
159 _29_:CLK _29_:CLK 0
160 *24:12 *24:17 0
*END

*D_NET *25 0.00346535047032
*CONN
*I _24_:CLK I
*I _25_:CLK I
*I _26_:CLK I
*I _28_:CLK I
*I _32_:CLK I
*I clkbuf_1_1__f_clk:X O
*CAP
109 _32_:CLK 4.017137184e-05
110 *25:1 0.00055710352544
111 *25:3 0.00019595053436
112 _24_:CLK 0.0007909941392
113 _28_:CLK 4.017137184e-05
114 *25:5 0.00014298538739999998
115 *25:7 0.00055710352544
116 _25_:CLK 6.898398368e-05
117 clkbuf_1_1__f_clk:X 0.0003621946806399999
118 *25:9 0.00022243310784000002
119 *25:4 0.00048725884264
120 *25:2 0
121 _26_:CLK 0
122 *25:8 0
*RES
161 _32_:CLK *25:1 0.30357142857142855
162 *25:1 *25:2 5.75
163 *25:3 *25:4 2.1249999999999996
164 _24_:CLK _28_:CLK 8.214285714285714
165 _28_:CLK _28_:CLK 0.30357142857142855
166 *25:5 *25:6 1.5178571428571426
167 *25:7 *25:8 5.75
168 _25_:CLK *25:7 0.6071428571428571
169 clkbuf_1_1__f_clk:X clkbuf_1_1__f_clk:X 3.6964285714285707
170 *25:9 *25:5 2.4285714285714284
171 *25:4 *25:9 5.4642857142857135
172 _28_:CLK _28_:CLK 0
173 _28_:CLK *25:4 0
174 _32_:CLK _32_:CLK 0
175 *25:2 *25:3 0
176 _24_:CLK _24_:CLK 0
177 _26_:CLK _26_:CLK 0
178 _26_:CLK *25:6 0
179 *25:8 *25:5 0
180 _25_:CLK _25_:CLK 0
181 clkbuf_1_1__f_clk:X clkbuf_1_1__f_clk:X 0
182 clkbuf_1_1__f_clk:X *25:9 0
*END

*D_NET *26 0.00085830180096
*CONN
*P load I
*I input11:A I
*CAP
123 *26:1 0.00026215696806
124 *26:3 0.0005961448329
125 input11:A 0
*RES
183 *26:1 *26:2 2.883928571428571
184 *26:3 *26:4 1.0449666666666666
185 input11:A input11:A 0
186 input11:A *26:2 0
187 *26:1 *26:3 0
*END

*D_NET *27 0.0016821032168399998
*CONN
*I input1:X O
*I _12_:B I
*CAP
126 *27:1 0.00056670656308
127 *27:3 0.0004791399875199999
128 _12_:B 4.017137184e-05
129 *27:5 0.0005960852944
130 *27:4 0
131 input1:X 0
*RES
188 *27:1 *27:2 6.374999999999999
189 *27:3 *27:4 4.928571428571428
190 _12_:B *27:3 0.30357142857142855
191 *27:5 input1:X 6.160714285714286
192 *27:5 *27:2 0
193 *27:4 *27:1 0
194 _12_:B _12_:B 0
195 input1:X input1:X 0
*END

*D_NET *28 0.0025928508254000004
*CONN
*I input10:X O
*I _21_:A1 I
*CAP
132 input10:X 0.0005960852944
133 *28:2 0.0019967655310000002
134 *28:1 0
135 _21_:A1 0
*RES
196 input10:X *28:1 6.160714285714286
197 *28:2 *28:3 22.767857142857142
198 input10:X input10:X 0
199 *28:1 *28:2 0
200 _21_:A1 _21_:A1 0
201 _21_:A1 *28:3 0
*END

*D_NET *29 0.009679062188680001
*CONN
*I input11:X O
*I _11_:S I
*I _12_:A I
*I _13_:S I
*I _14_:S I
*I _15_:S I
*I _16_:S I
*I _17_:S I
*I _18_:S I
*I _19_:S I
*I _20_:S I
*I _21_:S I
*CAP
136 _15_:S 0.0003621946806399999
137 *29:2 0.00024643897664
138 *29:4 0.0012977571356799999
139 _16_:S 4.017137184e-05
140 *29:5 0.00022243310784000002
141 *29:7 0.00043429369568000003
142 _11_:S 0.0005181217564799999
143 *29:10 0.0010638665219200002
144 *29:11 6.898398368e-05
145 *29:13 0.00048725884264
146 *29:15 0.00024891568132000004
147 *29:17 8.932229792e-05
148 *29:19 0.0006726368570000002
149 *29:20 0.00042383593674000003
150 *29:21 0.00077856715092
151 *29:23 0.0002062676048
152 *29:22 0.00046077626916000004
153 *29:24 0.00019595053436
154 *29:25 5.029638022e-05
155 _12_:A 0.00075201237024
156 _13_:S 0.0005181217564799999
157 *29:12 5.034052896000001e-05
158 *29:18 5.034052896000001e-05
159 *29:29 0.00044015821855999997
160 *29:1 0
161 _17_:S 0
162 _21_:S 0
163 *29:9 0
164 *29:27 0
165 input11:X 0
166 *29:28 0
167 _18_:S 0
168 _20_:S 0
169 _14_:S 0
170 _19_:S 0
*RES
202 _15_:S *29:1 3.6964285714285707
203 *29:2 _17_:S 2.0535714285714284
204 *29:2 *29:3 0.30357142857142855
205 *29:4 *29:3 13.553571428571427
206 _16_:S *29:4 0.30357142857142855
207 *29:5 *29:6 2.4285714285714284
208 *29:7 *29:8 4.857142857142857
209 _11_:S *29:9 5.339285714285714
210 *29:10 *29:11 11.089285714285714
211 *29:11 *29:12 0.6071428571428571
212 *29:13 *29:14 5.4642857142857135
213 *29:15 *29:16 2.7321428571428568
214 *29:17 *29:18 0.8214285714285714
215 *29:19 *29:7 7.5892857142857135
216 *29:20 *29:13 3.7946428571428568
217 *29:21 *29:22 8.803571428571427
218 *29:23 input11:X 2.0535714285714284
219 *29:22 *29:24 5.160714285714286
220 *29:24 *29:25 2.1249999999999996
221 *29:25 *29:26 0.45535714285714285
222 _12_:A *29:27 7.803571428571428
223 _13_:S *29:28 5.339285714285714
224 *29:20 *29:26 0.8214285714285714
225 *29:12 _14_:S 0.4107142857142857
226 *29:18 _19_:S 0.4107142857142857
227 *29:29 _20_:S 4.517857142857142
228 _15_:S _15_:S 0
229 *29:1 *29:19 0
230 _17_:S _17_:S 0
231 _16_:S _16_:S 0
232 _12_:A _12_:A 0
233 _12_:A *29:5 0
234 _17_:S *29:6 0
235 _13_:S _13_:S 0
236 _21_:S _21_:S 0
237 _21_:S *29:7 0
238 *29:9 *29:8 0
239 _11_:S _11_:S 0
240 *29:11 *29:13 0
241 *29:10 *29:30 0
242 *29:18 *29:14 0
243 *29:29 *29:16 0
244 *29:17 *29:15 0
245 *29:27 *29:22 0
246 *29:23 *29:21 0
247 input11:X input11:X 0
248 *29:28 *29:24 0
249 _18_:S _18_:S 0
250 _18_:S *29:25 0
251 _20_:S _20_:S 0
252 _14_:S _14_:S 0
253 _19_:S _19_:S 0
*END

*D_NET *30 0.0008684164382399998
*CONN
*I output12:A I
*I _11_:A1 I
*I _31_:Q O
*CAP
171 output12:A 5.034052896000001e-05
172 *30:2 0.00014298538739999998
173 *30:4 0.0004791399875199999
174 *30:5 0.00019595053436
175 *30:1 0
176 _11_:A1 0
177 _31_:Q 0
*RES
254 output12:A *30:1 0.4107142857142857
255 *30:2 *30:3 1.5178571428571426
256 *30:4 _11_:A1 4.928571428571428
257 *30:5 *30:2 2.1249999999999996
258 output12:A output12:A 0
259 *30:1 *30:2 0
260 *30:4 *30:3 0
261 _11_:A1 _11_:A1 0
262 _31_:Q _31_:Q 0
263 _31_:Q *30:5 0
*END

*D_NET *31 0.00127762724652
*CONN
*I input2:X O
*I _13_:A1 I
*CAP
178 *31:1 0.0011493231796400002
179 *31:3 0.00012830406688
180 input2:X 0
181 _13_:A1 0
*RES
264 *31:1 *31:2 13.053571428571427
265 *31:3 _13_:A1 1.232142857142857
266 input2:X input2:X 0
267 input2:X *31:1 0
268 *31:3 *31:2 0
269 _13_:A1 _13_:A1 0
*END

*D_NET *32 0.00066407550892
*CONN
*I input3:X O
*I _14_:A1 I
*CAP
182 *32:1 0.00030188082828000006
183 _14_:A1 0.0003621946806399999
184 *32:3 0
185 input3:X 0
*RES
270 *32:1 *32:2 3.339285714285714
271 _14_:A1 *32:3 3.6964285714285707
272 _14_:A1 _14_:A1 0
273 *32:3 *32:1 0
274 input3:X input3:X 0
275 input3:X *32:2 0
*END

*D_NET *33 0.0015600304596800002
*CONN
*I input4:X O
*I _15_:A1 I
*CAP
186 *33:1 0.0005960852944
187 *33:2 0.0009639451652800001
188 _15_:A1 0
189 input4:X 0
*RES
276 *33:1 _15_:A1 6.160714285714286
277 *33:2 *33:3 10.928571428571427
278 _15_:A1 _15_:A1 0
279 *33:1 *33:2 0
280 input4:X input4:X 0
281 input4:X *33:3 0
*END

*D_NET *34 0.0009904277387600001
*CONN
*I input5:X O
*I _16_:A1 I
*CAP
190 *34:1 0.0009904277387600001
191 input5:X 0
192 _16_:A1 0
*RES
282 *34:1 *34:2 11.232142857142856
283 input5:X input5:X 0
284 input5:X *34:1 0
285 _16_:A1 _16_:A1 0
286 _16_:A1 *34:2 0
*END

*D_NET *35 0.0018689162463200004
*CONN
*I input6:X O
*I _17_:A1 I
*CAP
193 *35:1 0.0008050497244000001
194 _17_:A1 0.0010638665219200002
195 input6:X 0
196 *35:3 0
*RES
287 *35:1 *35:2 9.107142857142856
288 _17_:A1 *35:3 11.089285714285714
289 _17_:A1 _17_:A1 0
290 input6:X input6:X 0
291 input6:X *35:1 0
292 *35:3 *35:2 0
*END

*D_NET *36 0.00296188995972
*CONN
*I input7:X O
*I _18_:A1 I
*CAP
197 input7:X 0.00207739251488
198 *36:2 0.00088449744484
199 *36:1 0
200 _18_:A1 0
*RES
293 input7:X *36:1 21.76785714285714
294 *36:2 *36:3 10.017857142857142
295 input7:X input7:X 0
296 *36:1 *36:2 0
297 _18_:A1 _18_:A1 0
298 _18_:A1 *36:3 0
*END

*D_NET *37 0.00017934253836
*CONN
*I input8:X O
*I _19_:A1 I
*CAP
201 *37:1 9.002024044000002e-05
202 input8:X 8.932229792e-05
203 _19_:A1 0
204 *37:3 0
*RES
299 *37:1 *37:2 0.9107142857142857
300 input8:X *37:3 0.8214285714285714
301 _19_:A1 _19_:A1 0
302 _19_:A1 *37:1 0
303 *37:3 *37:2 0
304 input8:X input8:X 0
*END

*D_NET *38 0.00035222135724000006
*CONN
*I input9:X O
*I _20_:A1 I
*CAP
205 *38:1 5.034052896000001e-05
206 *38:2 0.00030188082828000006
207 input9:X 0
208 _20_:A1 0
*RES
305 *38:1 input9:X 0.4107142857142857
306 *38:2 *38:3 3.339285714285714
307 input9:X input9:X 0
308 *38:1 *38:2 0
309 _20_:A1 _20_:A1 0
310 _20_:A1 *38:3 0
*END

*D_NET *39 0.00025879025880000005
*CONN
*I _32_:Q O
*I _13_:A0 I
*CAP
209 *39:1 0.00016946796088000002
210 _32_:Q 8.932229792e-05
211 _13_:A0 0
212 *39:3 0
*RES
311 *39:1 *39:2 1.8214285714285714
312 _32_:Q *39:3 0.8214285714285714
313 _13_:A0 _13_:A0 0
314 _13_:A0 *39:1 0
315 *39:3 *39:2 0
316 _32_:Q _32_:Q 0
*END

*D_NET *40 0.00034811255672000005
*CONN
*I _28_:Q O
*I _14_:A0 I
*CAP
213 *40:1 5.034052896000001e-05
214 *40:2 0.00016946796088000002
215 _14_:A0 0.00012830406688
216 _28_:Q 0
217 *40:4 0
*RES
317 *40:1 _28_:Q 0.4107142857142857
318 *40:2 *40:3 1.8214285714285714
319 _14_:A0 *40:4 1.232142857142857
320 _14_:A0 _14_:A0 0
321 _28_:Q _28_:Q 0
322 *40:1 *40:2 0
323 *40:4 *40:3 0
*END

*D_NET *41 0.00039120312620000006
*CONN
*I _29_:Q O
*I _15_:A0 I
*CAP
218 *41:1 8.932229792e-05
219 *41:2 0.00030188082828000006
220 _15_:A0 0
221 _29_:Q 0
*RES
324 *41:1 _29_:Q 0.8214285714285714
325 *41:2 *41:3 3.339285714285714
326 _15_:A0 _15_:A0 0
327 _15_:A0 *41:2 0
328 *41:1 *41:3 0
329 _29_:Q _29_:Q 0
*END

*D_NET *42 0.0006030637140399999
*CONN
*I _30_:Q O
*I _16_:A0 I
*CAP
222 *42:1 8.932229792e-05
223 *42:2 0.00051374141612
224 _16_:A0 0
225 _30_:Q 0
*RES
330 *42:1 _16_:A0 0.8214285714285714
331 *42:2 *42:3 5.767857142857142
332 _16_:A0 _16_:A0 0
333 *42:1 *42:2 0
334 _30_:Q _30_:Q 0
335 _30_:Q *42:3 0
*END

*D_NET *43 0.0003621946806399999
*CONN
*I _22_:Q O
*I _17_:A0 I
*CAP
226 _22_:Q 0.0003621946806399999
227 _17_:A0 0
*RES
336 _22_:Q _17_:A0 3.6964285714285707
337 _17_:A0 _17_:A0 0
338 _22_:Q _22_:Q 0
*END

*D_NET *44 0.0008435167932
*CONN
*I _23_:Q O
*I _18_:A0 I
*CAP
228 *44:1 0.00016946796088000002
229 *44:3 0.00067404883232
230 _23_:Q 0
231 _18_:A0 0
*RES
339 *44:1 *44:2 1.8214285714285714
340 *44:3 _18_:A0 6.982142857142857
341 _23_:Q _23_:Q 0
342 _23_:Q *44:1 0
343 *44:3 *44:2 0
344 _18_:A0 _18_:A0 0
*END

*D_NET *45 0.0013720278273199999
*CONN
*I _24_:Q O
*I _19_:A0 I
*CAP
232 _24_:Q 0.00012830406688
233 *45:2 0.0005181217564799999
234 *45:3 0.0007256020039600001
235 *45:1 0
236 _19_:A0 0
*RES
345 _24_:Q *45:1 1.232142857142857
346 *45:2 _19_:A0 5.339285714285714
347 *45:3 *45:4 8.196428571428571
348 _24_:Q _24_:Q 0
349 *45:1 *45:3 0
350 *45:2 *45:4 0
351 _19_:A0 _19_:A0 0
*END

*D_NET *46 0.00090898113564
*CONN
*I _25_:Q O
*I _20_:A0 I
*CAP
237 *46:1 0.00019595053436
238 _25_:Q 0.00071303060128
239 *46:3 0
240 _20_:A0 0
*RES
352 *46:1 *46:2 2.1249999999999996
353 _25_:Q *46:3 7.3928571428571415
354 _25_:Q _25_:Q 0
355 *46:3 *46:1 0
356 _20_:A0 _20_:A0 0
357 _20_:A0 *46:2 0
*END

*D_NET *47 0.00047065084663999994
*CONN
*I _26_:Q O
*I _21_:A0 I
*CAP
241 *47:1 0.00038132854871999994
242 *47:3 8.932229792e-05
243 _21_:A0 0
244 _26_:Q 0
*RES
358 *47:1 *47:2 4.249999999999999
359 *47:3 _26_:Q 0.8214285714285714
360 _21_:A0 _21_:A0 0
361 _21_:A0 *47:1 0
362 *47:3 *47:2 0
363 _26_:Q _26_:Q 0
*END

*D_NET *48 0.0003352696142
*CONN
*I _27_:Q O
*I _11_:A0 I
*CAP
245 _27_:Q 0.00024524937376
246 *48:2 9.002024044000002e-05
247 *48:1 0
248 _11_:A0 0
*RES
364 _27_:Q *48:1 2.464285714285714
365 *48:2 *48:3 0.9107142857142857
366 _27_:Q _27_:Q 0
367 *48:1 *48:2 0
368 _11_:A0 _11_:A0 0
369 _11_:A0 *48:3 0
*END

